2024-08-08 07:40:29: case.setup starting 
 ---------------------------------------------------
2024-08-08 07:40:30: case.setup success 
 ---------------------------------------------------
2024-08-08 07:40:30:   local git repository created
 ---------------------------------------------------
2024-08-08 07:41:28: xmlchange success <command> ./xmlchange CASE_GIT_REPOSITORY=git@github.com:CESM-Development/test-cases.git  </command>
 ---------------------------------------------------
2024-08-08 07:41:45: case.build starting 
 ---------------------------------------------------
2024-08-08 07:41:47: case.build error 
ERROR: Command /work/02503/edwardsj/cesm3_0_x/components/clm/bld/build-namelist failed rc=2
out=
err=Can't locate XML/LibXML.pm in @INC (you may need to install the XML::LibXML module) (@INC contains: /work/02503/edwardsj/cesm3_0_x/components/clm/bld /work/02503/edwardsj/cesm3_0_x/components/clm/bld /work/02503/edwardsj/cesm3_0_x/cime/utils/perl5lib /work/02503/edwardsj/cesm3_0_x/components/clm/bld /usr/local/lib64/perl5/5.32 /usr/local/share/perl5/5.32 /usr/lib64/perl5/vendor_perl /usr/share/perl5/vendor_perl /usr/lib64/perl5 /usr/share/perl5) at /work/02503/edwardsj/cesm3_0_x/cime/utils/perl5lib/Config/SetupTools.pm line 5.
BEGIN failed--compilation aborted at /work/02503/edwardsj/cesm3_0_x/cime/utils/perl5lib/Config/SetupTools.pm line 5.
Compilation failed in require at /work/02503/edwardsj/cesm3_0_x/components/clm/bld/CLMBuildNamelist.pm line 421.
 ---------------------------------------------------
