2024-08-08 07:40:29: case.setup starting 
 ---------------------------------------------------
2024-08-08 07:40:30: case.setup success 
 ---------------------------------------------------
2024-08-08 07:40:30:   local git repository created
 ---------------------------------------------------
2024-08-08 07:41:28: xmlchange success <command> ./xmlchange CASE_GIT_REPOSITORY=git@github.com:CESM-Development/test-cases.git  </command>
 ---------------------------------------------------
2024-08-08 07:41:45: case.build starting 
 ---------------------------------------------------
2024-08-08 07:41:47: case.build error 
ERROR: Command /work/02503/edwardsj/cesm3_0_x/components/clm/bld/build-namelist failed rc=2
out=
err=Can't locate XML/LibXML.pm in @INC (you may need to install the XML::LibXML module) (@INC contains: /work/02503/edwardsj/cesm3_0_x/components/clm/bld /work/02503/edwardsj/cesm3_0_x/components/clm/bld /work/02503/edwardsj/cesm3_0_x/cime/utils/perl5lib /work/02503/edwardsj/cesm3_0_x/components/clm/bld /usr/local/lib64/perl5/5.32 /usr/local/share/perl5/5.32 /usr/lib64/perl5/vendor_perl /usr/share/perl5/vendor_perl /usr/lib64/perl5 /usr/share/perl5) at /work/02503/edwardsj/cesm3_0_x/cime/utils/perl5lib/Config/SetupTools.pm line 5.
BEGIN failed--compilation aborted at /work/02503/edwardsj/cesm3_0_x/cime/utils/perl5lib/Config/SetupTools.pm line 5.
Compilation failed in require at /work/02503/edwardsj/cesm3_0_x/components/clm/bld/CLMBuildNamelist.pm line 421.
 ---------------------------------------------------
2024-08-09 11:39:32: case.build starting 
 ---------------------------------------------------
2024-08-09 11:39:36: case.build error 
ERROR: Command: 'cmake -DCONVERT_TO_MAKE=ON  -DCIME_MODEL=cesm -DSRC_ROOT=/work/02503/edwardsj/cesm3_0_x  -Dcompile_threaded=FALSE  -DINSTALL_SHAREDPATH=/scratch/02503/edwardsj/f2000vista/bld/DO_NOT_USE -DCASEROOT="/work/02503/edwardsj/cesm3_0_x/cime/scripts/f2000vista" -DCASETOOLS="/work/02503/edwardsj/cesm3_0_x/cime/scripts/f2000vista/Tools" -DCIMEROOT="/work/02503/edwardsj/cesm3_0_x/cime" -DSRCROOT="/work/02503/edwardsj/cesm3_0_x" -DCOMP_INTERFACE="nuopc" -DCOMPILER="nvhpc" -DDEBUG="FALSE" -DEXEROOT="/scratch/02503/edwardsj/f2000vista/bld" -DRUNDIR="/scratch/02503/edwardsj/f2000vista/run" -DINCROOT="/scratch/02503/edwardsj/f2000vista/bld/lib/include" -DLIBROOT="/scratch/02503/edwardsj/f2000vista/bld/lib" -DMACH="vista" -DMPILIB="openmpi" -DNINST_VALUE="c1a1l1i1o1r1" -DOS="LINUX" -DPIO_VERSION="2" -DSHAREDLIBROOT="/scratch/02503/edwardsj/f2000vista/bld" -DBUILD_THREADED="FALSE" -DUSE_ESMF_LIB="TRUE" -DUSE_MOAB="FALSE" -DCAM_CONFIG_OPTS="-phys cam7 -nlev 93 -model_top mt" -DCOMP_ATM="cam" -DCOMP_ICE="cice" -DCOMP_GLC="sglc" -DCOMP_LND="clm" -DCOMP_OCN="docn" -DCOMP_ROF="mosart" -DCOMP_WAV="swav" -DUSE_TRILINOS="FALSE" -DUSE_ALBANY="FALSE" -DUSE_PETSC="FALSE"  -DCMAKE_C_COMPILER_WORKS=1 -DCMAKE_CXX_COMPILER_WORKS=1 -DCMAKE_Fortran_COMPILER_WORKS=1 .' failed with error 'cmake: /lib64/libstdc++.so.6: version `GLIBCXX_3.4.30' not found (required by cmake)
cmake: /lib64/libstdc++.so.6: version `GLIBCXX_3.4.32' not found (required by cmake)' from dir '/work/02503/edwardsj/cesm3_0_x/cime/scripts/f2000vista/cmaketmp'
 ---------------------------------------------------
2024-08-09 11:40:38: build.clean starting 
 ---------------------------------------------------
2024-08-09 11:40:40: build.clean success 
 ---------------------------------------------------
2024-08-09 11:40:44: case.build starting 
 ---------------------------------------------------
